LTspice 24.1.0 for Windows
Circuit: Z:\mnt\hdd\repo\sem4\IE\Draft4.net
Start Time: Thu Apr  3 14:45:58 2025
solver = Normal
Maximum thread count: 16
tnom = 27
temp = 27
method = trap
.OP point found by inspection.
Total elapsed time: 0.357 seconds.

Files loaded:
Z:\mnt\hdd\repo\sem4\IE\Draft4.net

