LTspice 24.1.0 for Windows
Circuit: Z:\mnt\hdd\repo\sem4\IE\Draft2.net
Start Time: Fri Mar 28 14:55:07 2025
solver = Normal
Maximum thread count: 16
tnom = 27
temp = 27
method = trap
WARNING: Node p001 is floating.

Direct Newton iteration for .op point succeeded.
Total elapsed time: 0.206 seconds.

Files loaded:
Z:\mnt\hdd\repo\sem4\IE\Draft2.net
C:\users\adi\AppData\Local\LTspice\lib\cmp\standard.bjt

