LTspice 24.1.0 for Windows
Circuit: Z:\mnt\hdd\repo\sem4\IE\Draft2.net
Start Time: Wed Apr  2 14:35:42 2025
solver = Normal
Maximum thread count: 16
tnom = 27
temp = 27
method = trap
Direct Newton iteration for .op point succeeded.
Total elapsed time: 0.387 seconds.

Files loaded:
Z:\mnt\hdd\repo\sem4\IE\Draft2.net
C:\users\adi\AppData\Local\LTspice\lib\cmp\standard.bjt

