LTspice 24.1.0 for Windows
Circuit: Z:\mnt\hdd\repo\sem4\IE\project3.net
Start Time: Fri Mar 28 15:43:57 2025
solver = Normal
Maximum thread count: 16
tnom = 27
temp = 27
method = trap
Direct Newton iteration for .op point succeeded.
Total elapsed time: 0.232 seconds.

Files loaded:
Z:\mnt\hdd\repo\sem4\IE\project3.net
C:\users\adi\AppData\Local\LTspice\lib\cmp\standard.bjt

