LTspice 24.1.0 for Windows
Circuit: Z:\mnt\hdd\repo\sem4\IE\project.net
Start Time: Tue Mar 25 15:36:44 2025
solver = Normal
Maximum thread count: 16
tnom = 27
temp = 27
method = trap
Direct Newton iteration for .op point succeeded.
Total elapsed time: 0.213 seconds.

Files loaded:
Z:\mnt\hdd\repo\sem4\IE\project.net
C:\users\adi\AppData\Local\LTspice\lib\cmp\standard.bjt

