LTspice 24.1.0 for Windows
Circuit: Z:\home\adi\tut\IE_Tut1.net
Start Time: Wed Jan 29 17:32:33 2025
solver = Normal
Maximum thread count: 16
tnom = 27
temp = 27
method = trap
Direct Newton iteration for .op point succeeded.
Total elapsed time: 0.169 seconds.

Files loaded:
Z:\home\adi\tut\IE_Tut1.net
C:\users\adi\AppData\Local\LTspice\lib\cmp\standard.dio

